230
Coordinates from ORCA-job tritylSIMes_CH2-dimer2_confD8 E -6726.340449811084
  H          -1.79456916538972     -1.79419698998817      1.39709830255836
  C          -0.80785127834485     -1.51417044123039      1.81066821150778
  Ru         -0.08048693366637      0.12076641738239      1.56953930558832
  Cl          1.85909904392140     -0.52086665736175      2.75006453236809
  C          -0.91309360501351      1.00780039721046      3.10651612675154
  N          -0.41346459498998      2.20713295968179      3.52069523415725
  C          -1.24896051063214      2.84230782170107      4.54762474325947
  C          -2.25195612903800      1.73004942290555      4.90163513873361
  N          -1.99653004473836      0.71989965305716      3.86426059150881
  C           0.87701527209173      2.69202466806191      3.13440135723664
  C           1.97845212543475      2.44006965971727      3.98001802766051
  C           3.24879437323006      2.77888157687085      3.51828811846646
  C           3.46564526626798      3.32104542821122      2.23887938695974
  C           2.34751250243862      3.61108296412387      1.45270996144086
  C           1.04003235556948      3.33747681383047      1.89785763240258
  C          -2.80342820793798     -0.44490297074310      3.72286268625578
  C          -3.99220776990266     -0.37059918276916      2.98157093212871
  C          -4.70389183447084     -1.55809752130277      2.75091906526959
  C          -4.25428781826325     -2.78834295660867      3.23630613506573
  C          -3.08673389918710     -2.81654816833019      4.02044042477328
  C          -2.35362201504691     -1.65870525405557      4.28992441553339
  C          -4.50037554608419      0.92736239087858      2.42286661807356
  C          -4.86191208255965     -4.12072988809378      2.75324631184319
  C          -1.10121370822502     -1.70299415508542      5.12390563658823
  C           1.81321441723335      1.77203122396986      5.31699755004374
  C           4.93482340874556      3.54440919898888      1.79932035634061
  C          -0.15020566063963      3.73047366254176      1.06269896663891
  Cl          1.22573551477502      0.62694910771873     -0.46034301056718
  Ru         -0.58961563831732     -0.26736358191324     -1.87663733879214
  C           0.11483196577552      0.25781963727707     -3.64205140284446
  N           1.20304985818445     -0.13970865206088     -4.34569223172614
  C           1.31479342181148      0.54274229221570     -5.64647427568096
  C           0.09494847829315      1.48361241453937     -5.65989719177607
  N          -0.55816357210039      1.17765503206294     -4.38164944216447
  C           2.34459683610759     -0.77538856348282     -3.77088299551978
  C           2.57160227095877     -2.14402305842919     -3.99493433446969
  C           3.71299398895060     -2.73310574837047     -3.42747212929310
  C           4.59833579350379     -2.00045302477523     -2.62574041637042
  C           4.33947559408750     -0.63399166388584     -2.43359329287251
  C           3.24653262676195      0.00678760905817     -3.02294928975828
  C          -1.75290361544832      1.81281364929306     -3.92268275387463
  C          -1.65281857593702      2.80644721819607     -2.93208361193220
  C          -2.83325913110675      3.25732419978412     -2.31898965882667
  C          -4.08372409673367      2.76745796721070     -2.70099765505657
  C          -4.14990354103641      1.92125699265137     -3.82180515025090
  C          -3.00562969361921      1.41655852679158     -4.43829445983120
  C           1.62246497269852     -2.95232909947337     -4.83897660908291
  C           5.81476912472184     -2.63033029931310     -1.89656757196393
  C           3.10744755266421      1.49976526113145     -2.90870773184077
  C          -0.32301166971085      3.38578596724480     -2.52710278276217
  C          -5.40151327103080      3.07901085068981     -1.95873012104087
  C          -3.11908295099542      0.45873631944404     -5.59109762982566
  Cl         -1.97355093680256      0.56881605172130      0.02332797531394
  Cl         -2.44965096794194     -1.36170539084983     -2.85265837106463
  C           0.28704347159021     -1.84354027247321     -1.81495361387664
  H           1.26867179580445     -1.95331139998729     -1.31693342658986
  H           1.29289473666253     -0.19204347340038     -6.47210318803320
  H           2.27229837567810      1.09036389692340     -5.70918699440479
  H           0.37701663681551      2.55249705216663     -5.70828715233390
  H          -0.58509221051341      1.27799619664820     -6.50517422232747
  H           3.89564055802801     -3.79127675960443     -3.62624778865204
  H           5.01163307271537     -0.03569025224673     -1.81189880752570
  H          -2.74729399293050      3.99386792055184     -1.51640940914325
  H          -5.12914385056185      1.58981427577121     -4.18236435815635
  H           1.75821348987467     -4.03017680196288     -4.66292350298402
  H           1.79515855544433     -2.77251495126259     -5.91618265865343
  H           0.57257311494775     -2.69036891674995     -4.62983304525076
  H           3.49896028817715      1.86210959476681     -1.94749554759517
  H           2.06690515608531      1.83838729252558     -2.99816487420697
  H           3.69860563101544      1.99669453591531     -3.70053764839981
  H           0.35156757474171      3.49496464658156     -3.39180846450074
  H           0.19751357111177      2.75887902909437     -1.78283662494893
  H          -0.46492229104197      4.38126293003053     -2.08047282521724
  H          -3.04382173381082      0.99263987307901     -6.55697412013257
  H          -4.09071858960808     -0.05644302980759     -5.57187387584393
  H          -2.33375134217395     -0.31050996733359     -5.54909115305599
  H          -0.18088955587811     -2.77563132747068     -2.18820259560153
  H          -0.22244872382473     -2.33289144073289      2.27390200417749
  H          -3.29992257783248      2.07491455348142      4.85994207861266
  H          -2.07749587058019      1.30154573744229      5.90775865947255
  H          -0.64082719256637      3.15888886327335      5.41195360518842
  H          -1.74585816686431      3.74488303908711      4.14009352014560
  H          -5.59852637070508     -1.50432184384586      2.12572451738609
  H          -2.70946960308216     -3.77498887131497      4.39193363764756
  H           4.11061547913083      2.54501942148122      4.15098827013558
  H           2.46636194977667      4.03745174307908      0.45402970034959
  H          -5.26052579195134      1.37532081802960      3.08972790035248
  H          -3.68928949426349      1.65751407778274      2.29210677871186
  H          -4.98089623753862      0.77194647466376      1.44535969852989
  H          -0.90182066011847     -2.72704968442270      5.47351768261216
  H          -0.21816900236542     -1.35559715240719      4.55874240286156
  H          -1.19289548698340     -1.05793289316092      6.01610067275349
  H           1.03524360473739      0.99360194860762      5.28099539101671
  H           2.75245234583680      1.28810104658104      5.62254866549078
  H           1.54145509993470      2.49946209334028      6.10470094713021
  H           0.13566902608136      4.50264019493360      0.33350360929051
  H          -0.57361152976673      2.87991461953030      0.50133079162673
  H          -0.96260849438896      4.13575974741195      1.68789043773472
  C           5.08088190066503      3.75753906982882      0.27352828714388
  C           5.79745464927046      2.87750128780440     -0.55231701149637
  C           4.58103805453536      4.94133669927832     -0.30432247310369
  C           6.00002771768608      3.16430053765099     -1.90882875785694
  C           4.76150954916769      5.21755211665309     -1.66040264767033
  C           5.47764683241980      4.32912648554827     -2.47175756351484
  H           6.23259336605752      1.96383430501289     -0.13990698643406
  H           4.07351222378354      5.67535529617285      0.33014381632945
  H           6.57475523523114      2.45858559865588     -2.51820809350429
  H           4.36054588834190      6.14588810844777     -2.08047027554754
  H           5.63661637590470      4.55355623386978     -3.53170110921573
  C           5.51302143157224      4.81605361167792      2.47107145820310
  C           4.87913065624711      5.48386212748758      3.52807473624203
  C           6.73369749244911      5.33825388329170      1.99972347876584
  C           5.45227492768181      6.62420582381844      4.10637043202046
  C           7.30945258157463      6.46881385991530      2.57966412034401
  C           6.67021071883180      7.12016530122338      3.64084602968008
  H           3.91870842497803      5.12496384343748      3.90509358557298
  H           7.23760567985901      4.84987160753059      1.15940057117772
  H           4.93117744671186      7.12864698884554      4.92663760804540
  H           8.26138972765231      6.84822348609867      2.19417577717316
  H           7.11604058172529      8.01186862915855      4.09300906210042
  C           5.72174429874099      2.28037406332532      2.22897993549747
  C           5.16984909353491      1.01724699662986      1.93517775596745
  C           6.95176061027588      2.32693723343662      2.89819338876660
  C           5.82972114404537     -0.15682236802581      2.29720744140262
  C           7.62052948170459      1.14642594952547      3.25332613063298
  C           7.06445441597686     -0.09834619372857      2.95552277071565
  H           4.19395493121437      0.94370667836169      1.44307578936621
  H           7.39661986447603      3.28755047668888      3.16812959419389
  H           5.36527002534068     -1.12092009149484      2.07200301537019
  H           8.57722462158623      1.21136734634980      3.78236726992144
  H           7.57870116570901     -1.02150820309953      3.24350972651979
  C          -5.19474807548018      4.09100708468208     -0.81096665952925
  C          -4.37205914250391      3.70889463999658      0.26677994227406
  C          -5.83549371793466      5.33527043501928     -0.74278530714799
  C          -4.17570946047707      4.55491671729998      1.35759659797554
  C          -5.64304001889320      6.18332351279926      0.35713116880530
  C          -4.80943028013845      5.80281298871166      1.40886291582496
  H          -3.88441057830370      2.72955121194142      0.24425831996977
  H          -6.50680960379937      5.65123176013593     -1.54509237638164
  H          -3.53017318589574      4.23012563618409      2.18103769364273
  H          -6.16011775039638      7.14787673575875      0.38734434076096
  H          -4.66129372592188      6.46618830707400      2.26706928165074
  C          -6.37146638180021      3.62532003158778     -3.03008637750370
  C          -5.95104838276211      4.72392757854023     -3.80475313536862
  C          -7.62179586081533      3.06008599646809     -3.31212242193424
  C          -6.76522200628273      5.25928447833112     -4.80201305386679
  C          -8.43778703598062      3.59111375948221     -4.32071687323781
  C          -8.01974503283770      4.69470142444427     -5.06438427340938
  H          -4.96252545606843      5.15866592055903     -3.62093291247058
  H          -7.96631197133768      2.18660278446670     -2.75361191164275
  H          -6.41506673146771      6.11767085908069     -5.38457513051535
  H          -9.40827568364576      3.12710843087608     -4.52452946481960
  H          -8.65916693018248      5.10825434297451     -5.85083158675577
  C          -5.95310681283736      1.79062534088191     -1.28921203008518
  C          -7.08860852589382      1.89866861748172     -0.46112005293511
  C          -5.36909309570558      0.52501174103454     -1.44198611137281
  C          -7.65218724419874      0.77284354269872      0.14208827424284
  C          -5.93475991197313     -0.60436523443830     -0.83514278825946
  C          -7.08419395690736     -0.49367511210219     -0.05180184943380
  H          -7.53834169105357      2.88309695060814     -0.29141983569073
  H          -4.45622889519122      0.38466320096458     -2.02370197359354
  H          -8.54158974516703      0.88501711489183      0.77115525528594
  H          -5.45391011112212     -1.57567868303140     -0.98957609664637
  H          -7.52607997714871     -1.38056947680107      0.41408037945427
  C           6.92871614544669     -1.55847531121437     -1.87922650677783
  C           7.31233391426046     -0.95432127470822     -3.09384414697618
  C           7.51484831128908     -1.08354538698035     -0.69925948767638
  C           8.26381639299966      0.06531228993510     -3.12611443685928
  C           8.45501718181932     -0.04386706272474     -0.72509183218761
  C           8.84019743636239      0.53072542634931     -1.93651756563190
  H           6.83516148310011     -1.27458801237481     -4.02614082659837
  H           7.21940652255784     -1.49795295013457      0.26555957757320
  H           8.54600761668617      0.51201035655337     -4.08544821787650
  H           8.86938286281717      0.32084320526980      0.22067056502334
  H           9.57272249130748      1.34406513360855     -1.95754608371552
  C           6.28235619590272     -3.93182701435296     -2.59858995294562
  C           7.46554919215236     -4.03283161704535     -3.34424950771453
  C           5.50176815083307     -5.09682920775353     -2.45162094219153
  C           7.83716517139855     -5.23996109576291     -3.95096925085237
  C           5.86458302970062     -6.29705269797566     -3.06296825619211
  C           7.03638620977161     -6.37489526835827     -3.82403373195102
  H           8.12864855015842     -3.17111617124030     -3.44207375833620
  H           4.60375013398543     -5.06499526583255     -1.82670000479824
  H           8.77107826672350     -5.28687084939783     -4.52049263305132
  H           5.23379467636404     -7.18210484635434     -2.93055200880437
  H           7.32879742644193     -7.31751706756608     -4.29760700213135
  C           5.40696335091494     -3.03392424370855     -0.45967539189541
  C           4.17209510972853     -2.70182360313447      0.11190300274223
  C           6.30550472231750     -3.80989047374301      0.29872290638675
  C           3.82940583626541     -3.15490112153262      1.39440739231260
  C           5.97753060839959     -4.23988550626433      1.58421827094572
  C           4.72864039254651     -3.92309565168859      2.13419361900607
  H           3.45921360932510     -2.07634313832287     -0.43191514301661
  H           7.27208718555717     -4.08721191360160     -0.13546630262635
  H           2.86227432855722     -2.87060303422742      1.81764803062066
  H           6.69595856516514     -4.83860555526709      2.15395223822274
  H           4.46173746901161     -4.26871887927384      3.13807115015866
  C          -3.78399834676395     -4.61252064817706      1.75883577625421
  C          -2.90844912409854     -5.66983621623140      2.04578628334182
  C          -3.55913084318282     -3.86749877827865      0.58614188688675
  C          -1.85714698935442     -5.98481636492598      1.17480550629043
  C          -2.52162449093065     -4.18515603318728     -0.29056617386269
  C          -1.66193545149968     -5.25051938263515      0.00339005738786
  H          -3.03111129469882     -6.24899296117741      2.96494531958340
  H          -4.19015663688488     -3.00042820668620      0.36624395038187
  H          -1.18341818496550     -6.81096045248422      1.42480803053392
  H          -2.38400113270624     -3.57679786024929     -1.19082312472858
  H          -0.83734285469762     -5.49653252820659     -0.67373204958468
  C          -6.24940206760455     -3.93468649094625      2.10103759451749
  C          -6.58038819597628     -4.45781532226251      0.84341025230434
  C          -7.26779185882247     -3.31790896109184      2.85189405062517
  C          -7.88430715358398     -4.34914419291823      0.34171138872457
  C          -8.56509849838073     -3.20517579863324      2.35282416630711
  C          -8.88120094629343     -3.72081478359956      1.08940348242113
  H          -5.81812903959131     -4.96270791315365      0.24413232828312
  H          -7.03668819459611     -2.93022970980826      3.84956064389959
  H          -8.11610809049841     -4.76419981204659     -0.64439023967078
  H          -9.33711563132500     -2.71760348064871      2.95695851004840
  H          -9.89886903638425     -3.63534786759602      0.69530728435209
  C          -5.13492529629056     -5.12269232466751      3.89257524086045
  C          -5.17545116201502     -4.74809306496346      5.24293927695999
  C          -5.49215001730431     -6.44254061423739      3.55997299446959
  C          -5.52947869575591     -5.67213087876415      6.23424283116402
  C          -5.83753234864183     -7.36609227347353      4.54614648279663
  C          -5.85347685927355     -6.98592241091750      5.89346682079724
  H          -4.93633583870712     -3.72101812511922      5.53184909358311
  H          -5.50777965392786     -6.74416648356829      2.50755040475615
  H          -5.55326537902040     -5.35414966818032      7.28164634944258
  H          -6.10586994371017     -8.38810680970707      4.25994968606069
  H          -6.12786648136452     -7.70811787324828      6.66891596345932
