55
Coordinates from ORCA-job mo_job2 E -66.259516739070
C	 0.331922	 3.068262	-2.607676	0.0
C	-0.239168	 3.027953	-1.213451	0.0
H	 1.286806	 2.539494	-2.633570	0.0
H	 0.504035	 4.106081	-2.901115	0.0
H	-0.347411	 2.623799	-3.332998	0.0
Ru	 0.164532	 1.095513	-0.181889	0.0
C	 0.482086	 3.526341	-0.137434	0.0
H	-1.329055	 3.119523	-1.138931	0.0
C	 1.266065	 1.698494	 1.217229	0.0
C	-0.086772	-0.840278	-0.070969	0.0
O	-1.531463	 1.528590	 1.063873	0.0
O	 1.877721	 0.881436	-1.440438	0.0
H	 0.885401	 2.019688	 2.188286	0.0
H	 2.348520	 1.819960	 1.127140	0.0
C	-0.598264	-1.372836	-1.407273	0.0
N	 0.113771	-1.616691	 0.978492	0.0
C	-0.906373	-0.115661	-2.252355	0.0
C	 0.459572	-2.167181	-2.193238	0.0
C	-1.907699	-2.170811	-1.271015	0.0
H	-1.433811	 0.635423	-1.637398	0.0
H	-1.552606	-0.368622	-3.093926	0.0
H	 0.025994	 0.292617	-2.647414	0.0
H	 0.103039	-2.323525	-3.210256	0.0
H	 0.683647	-3.141386	-1.767344	0.0
H	 1.379098	-1.589502	-2.235823	0.0
H	-1.773362	-3.146168	-0.814047	0.0
H	-2.335706	-2.330122	-2.259868	0.0
H	-2.625476	-1.609837	-0.676019	0.0
C	 0.194657	-3.077098	 1.008921	0.0
C	 0.400990	-0.975707	 2.252137	0.0
C	-0.879647	-3.690170	 1.912683	0.0
C	 1.599920	-3.521776	 1.420077	0.0
H	 0.024336	-3.438490	-0.001859	0.0
H	-0.636997	-3.582937	 2.966442	0.0
H	-0.969026	-4.752856	 1.699631	0.0
H	-1.842038	-3.218517	 1.730143	0.0
H	 1.814844	-3.270489	 2.454668	0.0
H	 2.341689	-3.042812	 0.784894	0.0
H	 1.688905	-4.599346	 1.304690	0.0
H	-0.251840	-0.109058	 2.362568	0.0
H	 1.440422	-0.636488	 2.285222	0.0
H	 0.218726	-1.669581	 3.067012	0.0
C	-2.715489	 0.860517	 0.950369	0.0
H	-3.191403	 0.950389	-0.049930	0.0
H	-3.433962	 1.280072	 1.676907	0.0
H	-2.628226	-0.222989	 1.176158	0.0
C	 3.030860	 0.252747	-1.056720	0.0
H	 3.577610	-0.078155	-1.959244	0.0
H	 2.852496	-0.642440	-0.429512	0.0
H	 3.718312	 0.911673	-0.493893	0.0
C	-0.214470	 4.214740	 1.002858	0.0
H	 1.519025	 3.804626	-0.321247	0.0
H	 0.468418	 4.448339	 1.815197	0.0
H	-0.645529	 5.150846	 0.640624	0.0
H	-1.019225	 3.578308	 1.373930	0.0
