M00000131_D2
  CDK     0207201952

 68 71  0  0  0  0  0  0  0  0999 V2000
   -0.1336   -0.1923   -0.2174 Ru  0  0  0  0  0  0  0  0  0  0  0  0
    1.6393   -0.2017   -1.6623 C   0  0  0  0  0  0  0  0  0  0  0  0
   -1.8804   -0.1451    1.2650 C   0  0  0  0  0  0  0  0  0  0  0  0
   -1.2379   -1.6381   -1.4943 N   0  0  0  0  0  0  0  0  0  0  0  0
   -1.0789    1.2385   -1.5196 N   0  0  0  0  0  0  0  0  0  0  0  0
    0.5245   -1.9540    0.7838 N   0  0  0  0  0  0  0  0  0  0  0  0
    0.9118    1.1463    0.9817 C   0  0  0  0  0  0  0  0  0  0  0  0
    2.4620    1.0600   -1.6084 C   0  0  0  0  0  0  0  0  0  0  0  0
    2.2802   -1.0496   -1.4255 H   0  0  0  0  0  0  0  0  0  0  0  0
    1.2697   -0.3378   -2.6776 H   0  0  0  0  0  0  0  0  0  0  0  0
    2.9018    1.2484   -2.5867 H   0  0  0  0  0  0  0  0  0  0  0  0
    3.2548    0.9456   -0.8707 H   0  0  0  0  0  0  0  0  0  0  0  0
    1.8251    1.8978   -1.3285 H   0  0  0  0  0  0  0  0  0  0  0  0
   -1.4839    0.3205    2.6425 C   0  0  0  0  0  0  0  0  0  0  0  0
   -2.6512    0.5195    0.8776 H   0  0  0  0  0  0  0  0  0  0  0  0
   -2.3094   -1.1431    1.3407 H   0  0  0  0  0  0  0  0  0  0  0  0
   -2.1243   -0.1544    3.3843 H   0  0  0  0  0  0  0  0  0  0  0  0
   -1.5955    1.4019    2.7067 H   0  0  0  0  0  0  0  0  0  0  0  0
   -0.4459    0.0519    2.8326 H   0  0  0  0  0  0  0  0  0  0  0  0
   -0.9496   -1.7567   -2.8233 C   0  0  0  0  0  0  0  0  0  0  0  0
   -2.2207   -2.4324   -0.9783 C   0  0  0  0  0  0  0  0  0  0  0  0
   -1.6250   -2.6539   -3.6631 C   0  0  0  0  0  0  0  0  0  0  0  0
   -0.1291   -1.0962   -3.1803 H   0  0  0  0  0  0  0  0  0  0  0  0
   -2.6296   -3.4625   -3.1215 C   0  0  0  0  0  0  0  0  0  0  0  0
   -1.3667   -2.7157   -4.7174 H   0  0  0  0  0  0  0  0  0  0  0  0
   -2.9326   -3.3533   -1.7605 C   0  0  0  0  0  0  0  0  0  0  0  0
   -3.1686   -4.1681   -3.7513 H   0  0  0  0  0  0  0  0  0  0  0  0
   -3.7073   -3.9690   -1.3101 H   0  0  0  0  0  0  0  0  0  0  0  0
   -2.4177   -2.2823    0.1054 H   0  0  0  0  0  0  0  0  0  0  0  0
   -0.4792    2.2366   -2.2333 C   0  0  0  0  0  0  0  0  0  0  0  0
   -2.4366    1.1012   -1.6721 C   0  0  0  0  0  0  0  0  0  0  0  0
   -1.1725    3.0648   -3.1277 C   0  0  0  0  0  0  0  0  0  0  0  0
    0.6116    2.3521   -2.0648 H   0  0  0  0  0  0  0  0  0  0  0  0
   -2.5474    2.8870   -3.2951 C   0  0  0  0  0  0  0  0  0  0  0  0
   -0.6369    3.8337   -3.6798 H   0  0  0  0  0  0  0  0  0  0  0  0
   -3.1888    1.8925   -2.5496 C   0  0  0  0  0  0  0  0  0  0  0  0
   -3.1095    3.5116   -3.9861 H   0  0  0  0  0  0  0  0  0  0  0  0
   -4.2610    1.7331   -2.6401 H   0  0  0  0  0  0  0  0  0  0  0  0
   -2.9150    0.3274   -1.0443 H   0  0  0  0  0  0  0  0  0  0  0  0
    1.0020   -2.9683   -0.0096 C   0  0  0  0  0  0  0  0  0  0  0  0
    0.4872   -2.1886    2.1297 C   0  0  0  0  0  0  0  0  0  0  0  0
    1.3875   -4.2144    0.5009 C   0  0  0  0  0  0  0  0  0  0  0  0
    1.0748   -2.7441   -1.0875 H   0  0  0  0  0  0  0  0  0  0  0  0
    1.3097   -4.4446    1.8782 C   0  0  0  0  0  0  0  0  0  0  0  0
    1.7483   -4.9882   -0.1731 H   0  0  0  0  0  0  0  0  0  0  0  0
    0.8586   -3.4124    2.7039 C   0  0  0  0  0  0  0  0  0  0  0  0
    1.5989   -5.4060    2.2969 H   0  0  0  0  0  0  0  0  0  0  0  0
    0.7924   -3.5472    3.7811 H   0  0  0  0  0  0  0  0  0  0  0  0
    0.1324   -1.3394    2.7500 H   0  0  0  0  0  0  0  0  0  0  0  0
    0.5060    2.4661    1.1883 N   0  0  0  0  0  0  0  0  0  0  0  0
    2.0837    0.8200    1.6715 N   0  0  0  0  0  0  0  0  0  0  0  0
    1.3785    3.4731    1.8586 C   0  0  0  0  0  0  0  0  0  0  0  0
   -0.8283    2.9902    0.8245 C   0  0  0  0  0  0  0  0  0  0  0  0
    1.9196    2.8574    3.1532 C   0  0  0  0  0  0  0  0  0  0  0  0
    0.8183    4.4063    2.0697 H   0  0  0  0  0  0  0  0  0  0  0  0
    2.2122    3.7436    1.1721 H   0  0  0  0  0  0  0  0  0  0  0  0
    2.7025    1.5909    2.7980 C   0  0  0  0  0  0  0  0  0  0  0  0
    1.0805    2.6177    3.8372 H   0  0  0  0  0  0  0  0  0  0  0  0
    2.5643    3.5717    3.6956 H   0  0  0  0  0  0  0  0  0  0  0  0
    3.7462    1.8630    2.5182 H   0  0  0  0  0  0  0  0  0  0  0  0
    2.7665    0.9216    3.6854 H   0  0  0  0  0  0  0  0  0  0  0  0
   -0.7724    3.6041   -0.0877 H   0  0  0  0  0  0  0  0  0  0  0  0
   -1.5458    2.1506    0.6630 H   0  0  0  0  0  0  0  0  0  0  0  0
   -1.2475    3.6041    1.6388 H   0  0  0  0  0  0  0  0  0  0  0  0
    2.9161   -0.3604    1.3372 C   0  0  0  0  0  0  0  0  0  0  0  0
    3.9773   -0.0772    1.2391 H   0  0  0  0  0  0  0  0  0  0  0  0
    2.8298   -1.1391    2.1102 H   0  0  0  0  0  0  0  0  0  0  0  0
    2.6142   -0.7896    0.3499 H   0  0  0  0  0  0  0  0  0  0  0  0
  4  1  1  0  0  0  0 
  4 20  2  0  0  0  0 
  5  1  1  0  0  0  0 
  5 30  2  0  0  0  0 
 21  4  1  0  0  0  0 
 29 21  1  0  0  0  0 
 26 21  2  0  0  0  0 
 26 24  1  0  0  0  0 
 28 26  1  0  0  0  0 
 24 22  2  0  0  0  0 
 27 24  1  0  0  0  0 
 22 20  1  0  0  0  0 
 22 25  1  0  0  0  0 
 20 23  1  0  0  0  0 
 31  5  1  0  0  0  0 
 39 31  1  0  0  0  0 
 36 31  2  0  0  0  0 
 36 34  1  0  0  0  0 
 38 36  1  0  0  0  0 
 34 32  2  0  0  0  0 
 37 34  1  0  0  0  0 
 32 30  1  0  0  0  0 
 32 35  1  0  0  0  0 
 30 33  1  0  0  0  0 
  6  1  1  0  0  0  0 
  6 40  2  0  0  0  0 
 40 43  1  0  0  0  0 
 42 40  1  0  0  0  0 
 42 45  1  0  0  0  0 
 44 42  2  0  0  0  0 
 47 44  1  0  0  0  0 
 46 41  2  0  0  0  0 
 46 44  1  0  0  0  0 
 48 46  1  0  0  0  0 
 41  6  1  0  0  0  0 
 49 41  1  0  0  0  0 
  9  2  1  0  0  0  0 
 10  2  1  0  0  0  0 
  8  2  1  0  0  0  0 
 11  8  1  0  0  0  0 
 12  8  1  0  0  0  0 
 13  8  1  0  0  0  0 
  1  2  1  0  0  0  0 
 15  3  1  0  0  0  0 
 16  3  1  0  0  0  0 
 14  3  1  0  0  0  0 
 17 14  1  0  0  0  0 
 18 14  1  0  0  0  0 
 19 14  1  0  0  0  0 
  1  3  1  0  0  0  0 
  7 50  1  0  0  0  0 
  7 51  1  0  0  0  0 
 50 52  1  0  0  0  0 
 52 55  1  0  0  0  0 
 52 56  1  0  0  0  0 
 52 54  1  0  0  0  0 
 54 58  1  0  0  0  0 
 54 59  1  0  0  0  0 
 51 57  1  0  0  0  0 
 57 60  1  0  0  0  0 
 57 61  1  0  0  0  0 
 54 57  1  0  0  0  0 
 53 62  1  0  0  0  0 
 53 63  1  0  0  0  0 
 53 64  1  0  0  0  0 
 50 53  1  0  0  0  0 
 65 66  1  0  0  0  0 
 65 67  1  0  0  0  0 
 65 68  1  0  0  0  0 
 51 65  1  0  0  0  0 
  1  7  1  0  0  0  0 
M  END
> <cdk:Title>
M00000131_D2_GOSE0

> <FrozenCore-PM6_ENERGY>
675.020

>  <CHARGE>
0

>  <SPIN_MULTIPLICITY>
1

$$$$
