3
Coordinates from ORCA-job m_job3 E  -5.070207972960
  O       0.928830      0.070340     -0.011540
  H       1.896720      0.097450      0.026160
  H       0.649980      0.612040      0.741960
3
Coordinates from ORCA-job m_job3 E  -5.070543405090
  O       0.939116      0.078830      0.000269
  H       1.897727      0.090666      0.016724
  H       0.638687      0.610334      0.739587
3
Coordinates from ORCA-job m_job3 E  -5.070544447010
  O       0.939466      0.079118      0.000670
  H       1.898500      0.090131      0.015979
  H       0.637564      0.610581      0.739931
3
Coordinates from ORCA-job m_job3 E  -5.070544448020
  O       0.939485      0.079134      0.000693
  H       1.898513      0.090113      0.015955
  H       0.637532      0.610582      0.739932
