Mol0_B
  CDK     06242510073D

  8  7  0  0  0  0  0  0  0  0999 V2000
   -0.4878   -0.0002   -0.5308 Ru  0  0  0  0  0  0  0  0  0  0  0  0
   -0.4878   -0.0002    1.2507 C   0  0  0  0  0  0  0  0  0  0  0  0
    0.3219    0.0006    1.9894 H   0  0  0  0  0  0  0  0  0  0  0  0
   -1.5197    0.0009    1.6653 H   0  0  0  0  0  0  0  0  0  0  0  0
    1.4493   -0.0002   -1.0528 C   0  0  0  0  0  0  0  0  0  0  0  0
    2.5731   -0.0002   -1.3051 O   0  0  0  0  0  0  0  0  0  0  0  0
   -0.9234   -2.2241   -2.0091 Cl  0  0  0  0  0  0  0  0  0  0  0  0
   -0.9257    2.2236   -2.0074 Cl  0  0  0  0  0  0  0  0  0  0  0  0
  1  2  2  0  0  0  0
  3  2  1  0  0  0  0
  4  2  1  0  0  0  0
  6  5  3  0  0  0  0
  1  5  1  0  0  0  0
  1  7  1  0  0  0  0
  1  8  1  0  0  0  0
M  END
> <PM6_ENERGY>
-47.513

> <XTB_STATE_NAME>
B

> <CHARGE>
0

> <SPIN_MULTIPLICITY>
1

$$$$
