manual_tests_M00033465_Z
 OpenBabel04251717053D

 55 56  0  0  0  0  0  0  0  0999 V2000
    2.2586   -2.2198    0.6333 H   0  0  0  0  0  0  0  0  0  0  0  0
    1.3749   -0.8182    0.8022 Ru  0  0  0  0  0  0  0  0  0  0  0  0
    2.5013   -2.2133    1.9741 C   0  0  0  0  0  0  0  0  0  0  0  0
    1.1760    1.1661    2.2081 Cl  0  0  0  0  0  0  0  0  0  0  0  0
    0.8090   -2.5336   -0.8376 Cl  0  0  0  0  0  0  0  0  0  0  0  0
    3.2459   -0.9830    1.9466 C   0  0  0  0  0  0  0  0  0  0  0  0
    1.1250   -2.0381    2.4603 C   0  0  0  0  0  0  0  0  0  0  0  0
   -0.2057    0.2053   -0.1172 C   0  0  2  0  0  0  0  0  0  0  0  0
    3.1475   -0.2725    2.7629 H   0  0  0  0  0  0  0  0  0  0  0  0
    4.1798   -0.9500    1.3811 H   0  0  0  0  0  0  0  0  0  0  0  0
    0.9762   -1.4319    3.3571 H   0  0  0  0  0  0  0  0  0  0  0  0
    0.4615   -2.9012    2.3648 H   0  0  0  0  0  0  0  0  0  0  0  0
   -1.5007   -0.1466   -0.0433 N   0  0  0  0  0  0  0  0  0  0  0  0
    0.1823    1.2215   -0.9217 N   0  0  0  0  0  0  0  0  0  0  0  0
   -1.9418   -1.0230    1.0673 C   0  0  0  0  0  0  0  0  0  0  0  0
   -2.4628    0.0073   -1.1784 C   0  0  2  0  0  0  0  0  0  0  0  0
   -1.1674   -1.7763    1.2312 H   0  0  0  0  0  0  0  0  0  0  0  0
   -2.8447   -1.5499    0.7458 H   0  0  0  0  0  0  0  0  0  0  0  0
   -2.2090   -0.2356    2.3500 C   0  0  0  0  0  0  0  0  0  0  0  0
   -1.2989    0.2834    2.6666 H   0  0  0  0  0  0  0  0  0  0  0  0
   -2.5231   -0.9167    3.1507 H   0  0  0  0  0  0  0  0  0  0  0  0
   -3.0004    0.5087    2.2009 H   0  0  0  0  0  0  0  0  0  0  0  0
   -1.9715    0.6373   -1.9216 H   0  0  0  0  0  0  0  0  0  0  0  0
   -3.7694    0.6746   -0.7335 C   0  0  0  0  0  0  0  0  0  0  0  0
   -2.6911   -1.3575   -1.8665 C   0  0  0  0  0  0  0  0  0  0  0  0
   -4.4261    0.8344   -1.5954 H   0  0  0  0  0  0  0  0  0  0  0  0
   -4.3088    0.0475   -0.0143 H   0  0  0  0  0  0  0  0  0  0  0  0
   -3.5867    1.6462   -0.2607 H   0  0  0  0  0  0  0  0  0  0  0  0
   -1.7256   -1.8760   -1.9168 H   0  0  0  0  0  0  0  0  0  0  0  0
   -3.3612   -1.9843   -1.2629 H   0  0  0  0  0  0  0  0  0  0  0  0
   -3.2735   -1.2016   -3.2773 C   0  0  0  0  0  0  0  0  0  0  0  0
   -4.2598   -0.7219   -3.2680 H   0  0  0  0  0  0  0  0  0  0  0  0
   -2.6093   -0.6000   -3.9119 H   0  0  0  0  0  0  0  0  0  0  0  0
   -3.3882   -2.1811   -3.7551 H   0  0  0  0  0  0  0  0  0  0  0  0
    1.6095    1.2479   -1.3027 C   0  0  0  0  0  0  0  0  0  0  0  0
   -0.6017    2.4751   -1.1301 C   0  0  2  0  0  0  0  0  0  0  0  0
    2.2105    0.8010   -0.4838 H   0  0  0  0  0  0  0  0  0  0  0  0
    1.9439    2.2890   -1.3514 H   0  0  0  0  0  0  0  0  0  0  0  0
    1.8869    0.5182   -2.6192 C   0  0  0  0  0  0  0  0  0  0  0  0
    1.6152   -0.5385   -2.5305 H   0  0  0  0  0  0  0  0  0  0  0  0
    2.9532    0.5833   -2.8684 H   0  0  0  0  0  0  0  0  0  0  0  0
    1.3146    0.9574   -3.4431 H   0  0  0  0  0  0  0  0  0  0  0  0
   -1.6066    2.2741   -0.7524 H   0  0  0  0  0  0  0  0  0  0  0  0
   -0.6800    2.8641   -2.6105 C   0  0  0  0  0  0  0  0  0  0  0  0
   -0.0355    3.6158   -0.2545 C   0  0  0  0  0  0  0  0  0  0  0  0
   -1.2973    3.7603   -2.7327 H   0  0  0  0  0  0  0  0  0  0  0  0
    0.3165    3.0900   -3.0072 H   0  0  0  0  0  0  0  0  0  0  0  0
   -1.1141    2.0646   -3.2218 H   0  0  0  0  0  0  0  0  0  0  0  0
    0.2681    3.1870    0.7078 H   0  0  0  0  0  0  0  0  0  0  0  0
    0.8650    4.0413   -0.7187 H   0  0  0  0  0  0  0  0  0  0  0  0
   -1.0659    4.7295   -0.0283 C   0  0  0  0  0  0  0  0  0  0  0  0
   -0.6469    5.5150    0.6103 H   0  0  0  0  0  0  0  0  0  0  0  0
   -1.3826    5.2008   -0.9670 H   0  0  0  0  0  0  0  0  0  0  0  0
   -1.9603    4.3378    0.4737 H   0  0  0  0  0  0  0  0  0  0  0  0
    2.9347   -3.1978    1.7452 H   0  0  0  0  0  0  0  0  0  0  0  0
  1  3  1  0  0  0  0 
  1  2  1  0  0  0  0 
  2  6  1  0  0  0  0 
  2  4  1  0  0  0  0 
  2  7  1  0  0  0  0 
  2  8  1  0  0  0  0 
  3 55  1  0  0  0  0 
  3  7  1  0  0  0  0 
  5  2  1  0  0  0  0 
  6  3  1  0  0  0  0 
  6  9  1  0  0  0  0 
  7 11  1  0  0  0  0 
  8 13  1  0  0  0  0 
  8 14  1  0  0  0  0 
 10  6  1  0  0  0  0 
 12  7  1  0  0  0  0 
 13 15  1  0  0  0  0 
 13 16  1  0  0  0  0 
 14 35  1  0  0  0  0 
 14 36  1  0  0  0  0 
 15 17  1  0  0  0  0 
 15 18  1  0  0  0  0 
 15 19  1  0  0  0  0 
 16 23  1  0  0  0  0 
 16 24  1  0  0  0  0 
 16 25  1  0  0  0  0 
 19 20  1  0  0  0  0 
 19 21  1  0  0  0  0 
 19 22  1  0  0  0  0 
 24 26  1  0  0  0  0 
 24 27  1  0  0  0  0 
 24 28  1  0  0  0  0 
 25 29  1  0  0  0  0 
 25 30  1  0  0  0  0 
 25 31  1  0  0  0  0 
 31 32  1  0  0  0  0 
 31 33  1  0  0  0  0 
 31 34  1  0  0  0  0 
 35 37  1  0  0  0  0 
 35 38  1  0  0  0  0 
 35 39  1  0  0  0  0 
 36 43  1  0  0  0  0 
 36 44  1  0  0  0  0 
 36 45  1  0  0  0  0 
 39 40  1  0  0  0  0 
 39 41  1  0  0  0  0 
 39 42  1  0  0  0  0 
 44 46  1  0  0  0  0 
 44 47  1  0  0  0  0 
 44 48  1  0  0  0  0 
 45 49  1  0  0  0  0 
 45 50  1  0  0  0  0 
 45 51  1  0  0  0  0 
 51 52  1  0  0  0  0 
 51 53  1  0  0  0  0 
 51 54  1  0  0  0  0 
M  END
>  <DFT_DATA>
-862.5483408

>  <Dst.DIST-TS-0_AtmIDs>
H1:C3

>  <Dst.DIST-TS-0_Value>
1.3626041905116835

>  <Dst.DIST-TS-1_AtmIDs>
H1:Ru2

>  <Dst.DIST-TS-1_Value>
1.6655135724454486

>  <CHARGE>
0

>  <SPIN_MULTIPLICITY>
1

$$$$
