M0001
  Spartan 11271611493D

 71 75  0  0  0  0  0  0  0  0999 V2000
    0.5773   -0.0945    0.9152 Ru  0  0  0  0  0  0  0  0  0  0  0  0
    0.5773   -2.5168    0.9152 Cl  0  0  0  0  0  0  0  0  0  0  0  0
   -0.2103    2.1994    0.9152 Cl  0  0  0  0  0  0  0  0  0  0  0  0
   -0.3669   -0.2726    2.9232 O   0  0  0  0  0  0  0  0  0  0  0  0
    2.0549    0.1280    1.9834 C   0  0  0  0  0  0  0  0  0  0  0  0
    1.2392    0.1315   -0.9911 C   0  0  0  0  0  0  0  0  0  0  0  0
   -1.8177   -0.3453    3.2214 C   0  0  0  0  0  0  0  0  0  0  0  0
    0.5879   -0.2234    3.9214 C   0  0  0  0  0  0  0  0  0  0  0  0
   -1.9492    0.1793    4.1960 H   0  0  0  0  0  0  0  0  0  0  0  0
   -2.1571   -1.8249    3.3141 C   0  0  0  0  0  0  0  0  0  0  0  0
   -2.5929    0.3754    2.1221 C   0  0  0  0  0  0  0  0  0  0  0  0
   -1.7744   -2.2853    4.2310 H   0  0  0  0  0  0  0  0  0  0  0  0
   -3.2316   -2.0133    3.2532 H   0  0  0  0  0  0  0  0  0  0  0  0
   -1.6706   -2.3672    2.4759 H   0  0  0  0  0  0  0  0  0  0  0  0
   -2.2119    0.0955    1.1210 H   0  0  0  0  0  0  0  0  0  0  0  0
   -3.6583    0.1400    2.1591 H   0  0  0  0  0  0  0  0  0  0  0  0
   -2.4633    1.4682    2.1844 H   0  0  0  0  0  0  0  0  0  0  0  0
    1.8931   -0.0028    3.4200 C   0  0  0  0  0  0  0  0  0  0  0  0
    0.3466   -0.3837    5.2872 C   0  0  0  0  0  0  0  0  0  0  0  0
    2.9667    0.0613    4.3301 C   0  0  0  0  0  0  0  0  0  0  0  0
    3.9695    0.2306    3.9447 H   0  0  0  0  0  0  0  0  0  0  0  0
    2.7424   -0.0976    5.7020 C   0  0  0  0  0  0  0  0  0  0  0  0
    3.5712   -0.0514    6.4017 H   0  0  0  0  0  0  0  0  0  0  0  0
    1.4360   -0.3190    6.1713 C   0  0  0  0  0  0  0  0  0  0  0  0
    1.2606   -0.4455    7.2389 H   0  0  0  0  0  0  0  0  0  0  0  0
   -0.6538   -0.5599    5.6694 H   0  0  0  0  0  0  0  0  0  0  0  0
    3.0649    0.3411    1.6324 H   0  0  0  0  0  0  0  0  0  0  0  0
    2.5127    0.3925   -1.4593 N   0  0  0  0  0  0  0  0  0  0  0  0
    0.1683    0.0602   -1.8852 N   0  0  0  0  0  0  0  0  0  0  0  0
    2.9511    0.5332   -2.8784 C   0  0  0  0  0  0  0  0  0  0  0  0
    3.6659    0.5598   -0.5834 C   0  0  0  0  0  0  0  0  0  0  0  0
    4.0212    0.7950   -2.9411 H   0  0  0  0  0  0  0  0  0  0  0  0
    2.3884    1.3351   -3.3900 H   0  0  0  0  0  0  0  0  0  0  0  0
    2.8113   -0.4219   -3.4234 H   0  0  0  0  0  0  0  0  0  0  0  0
    4.0137    1.8514   -0.1499 C   0  0  0  0  0  0  0  0  0  0  0  0
    4.4813   -0.5477   -0.2934 C   0  0  0  0  0  0  0  0  0  0  0  0
    3.3578    2.6971   -0.3631 H   0  0  0  0  0  0  0  0  0  0  0  0
    5.1940    2.0267    0.5765 C   0  0  0  0  0  0  0  0  0  0  0  0
    5.4716    3.0232    0.9207 H   0  0  0  0  0  0  0  0  0  0  0  0
    6.0173    0.9321    0.8634 C   0  0  0  0  0  0  0  0  0  0  0  0
    6.9394    1.0786    1.4241 H   0  0  0  0  0  0  0  0  0  0  0  0
    5.6574   -0.3501    0.4347 C   0  0  0  0  0  0  0  0  0  0  0  0
    6.2957   -1.2025    0.6684 H   0  0  0  0  0  0  0  0  0  0  0  0
    4.1874   -1.5466   -0.6182 H   0  0  0  0  0  0  0  0  0  0  0  0
    0.1343    0.1562   -3.3798 C   0  0  0  0  0  0  0  0  0  0  0  0
   -1.1857   -0.1531   -1.3662 C   0  0  0  0  0  0  0  0  0  0  0  0
    0.7999    0.9761   -3.7275 H   0  0  0  0  0  0  0  0  0  0  0  0
   -0.8899    0.4676   -3.6982 H   0  0  0  0  0  0  0  0  0  0  0  0
    0.4839   -1.1884   -4.0384 C   0  0  0  0  0  0  0  0  0  0  0  0
    1.5064   -1.5070   -3.7401 H   0  0  0  0  0  0  0  0  0  0  0  0
   -0.1939   -1.9795   -3.6559 H   0  0  0  0  0  0  0  0  0  0  0  0
    0.3831   -1.0985   -5.5566 C   0  0  0  0  0  0  0  0  0  0  0  0
    0.6348   -2.0589   -6.0241 H   0  0  0  0  0  0  0  0  0  0  0  0
    1.0628   -0.3463   -5.9718 H   0  0  0  0  0  0  0  0  0  0  0  0
   -0.6323   -0.8408   -5.8826 H   0  0  0  0  0  0  0  0  0  0  0  0
   -1.5855   -1.4338   -1.0467 C   0  0  0  0  0  0  0  0  0  0  0  0
   -2.1400    0.9353   -1.4135 C   0  0  0  0  0  0  0  0  0  0  0  0
   -0.8718   -2.2675   -1.0368 H   0  0  0  0  0  0  0  0  0  0  0  0
   -2.9590   -1.7050   -0.7739 C   0  0  0  0  0  0  0  0  0  0  0  0
   -3.2373   -2.7248   -0.5069 H   0  0  0  0  0  0  0  0  0  0  0  0
   -3.8989   -0.7131   -0.8751 C   0  0  0  0  0  0  0  0  0  0  0  0
   -4.9547   -0.9231   -0.7098 H   0  0  0  0  0  0  0  0  0  0  0  0
   -3.5103    0.6296   -1.1969 C   0  0  0  0  0  0  0  0  0  0  0  0
   -4.4838    1.6726   -1.2947 C   0  0  0  0  0  0  0  0  0  0  0  0
   -5.5320    1.4248   -1.1388 H   0  0  0  0  0  0  0  0  0  0  0  0
   -4.0981    2.9610   -1.5720 C   0  0  0  0  0  0  0  0  0  0  0  0
   -4.8334    3.7612   -1.6451 H   0  0  0  0  0  0  0  0  0  0  0  0
   -2.7218    3.2753   -1.7538 C   0  0  0  0  0  0  0  0  0  0  0  0
   -2.4380    4.3105   -1.9371 H   0  0  0  0  0  0  0  0  0  0  0  0
   -1.7663    2.2911   -1.6729 C   0  0  0  0  0  0  0  0  0  0  0  0
   -0.7057    2.5341   -1.7703 H   0  0  0  0  0  0  0  0  0  0  0  0
  1  2  1  0  0  0  0
  1  4  1  0  0  0  0
  1  5  2  0  0  0  0
  5 27  1  0  0  0  0
  1  3  1  0  0  0  0
  5 18  1  0  0  0  0
  8 18  2  0  0  0  0
  4  8  1  0  0  0  0
 18 20  1  0  0  0  0
  8 19  1  0  0  0  0
 19 26  1  0  0  0  0
 20 22  2  0  0  0  0
 22 24  1  0  0  0  0
 20 21  1  0  0  0  0
 19 24  2  0  0  0  0
 22 23  1  0  0  0  0
 24 25  1  0  0  0  0
  4  7  1  0  0  0  0
  7  9  1  0  0  0  0
  7 10  1  0  0  0  0
 10 12  1  0  0  0  0
 10 13  1  0  0  0  0
 11 15  1  0  0  0  0
  7 11  1  0  0  0  0
 10 14  1  0  0  0  0
 11 16  1  0  0  0  0
 11 17  1  0  0  0  0
  1  6  1  0  0  0  0
  6 28  1  0  0  0  0
 30 32  1  0  0  0  0
 30 33  1  0  0  0  0
 30 34  1  0  0  0  0
 28 30  1  0  0  0  0
 31 35  1  0  0  0  0
 31 36  2  0  0  0  0
 35 38  2  0  0  0  0
 38 40  1  0  0  0  0
 38 39  1  0  0  0  0
 40 42  2  0  0  0  0
 42 43  1  0  0  0  0
 36 42  1  0  0  0  0
 35 37  1  0  0  0  0
 28 31  1  0  0  0  0
 36 44  1  0  0  0  0
 40 41  1  0  0  0  0
  6 29  1  0  0  0  0
 46 56  1  0  0  0  0
 56 59  2  0  0  0  0
 59 60  1  0  0  0  0
 59 61  1  0  0  0  0
 61 62  1  0  0  0  0
 61 63  2  0  0  0  0
 63 64  1  0  0  0  0
 64 65  1  0  0  0  0
 64 66  2  0  0  0  0
 66 67  1  0  0  0  0
 66 68  1  0  0  0  0
 68 69  1  0  0  0  0
 68 70  2  0  0  0  0
 70 71  1  0  0  0  0
 46 57  2  0  0  0  0
 57 63  1  0  0  0  0
 57 70  1  0  0  0  0
 29 46  1  0  0  0  0
 56 58  1  0  0  0  0
 45 47  1  0  0  0  0
 45 48  1  0  0  0  0
 45 49  1  0  0  0  0
 49 50  1  0  0  0  0
 49 51  1  0  0  0  0
 49 52  1  0  0  0  0
 52 53  1  0  0  0  0
 52 54  1  0  0  0  0
 52 55  1  0  0  0  0
 29 45  1  0  0  0  0
M  END
> <Relative Energy (kcal/mol)>
9.83

$$$$
