M00000140_C2
  CDK     0207202012

 58 62  0  0  0  0  0  0  0  0999 V2000
    2.7141   -1.3069   -0.6133 Ru  0  0  0  0  0  0  0  0  0  0  0  0
    4.3072   -1.3657   -1.8609 C   0  0  0  0  0  0  0  0  0  0  0  0
    3.6824   -2.8011    0.3259 C   0  0  0  0  0  0  0  0  0  0  0  0
    0.9801   -0.3450   -0.4192 C   0  0  0  0  0  0  0  0  0  0  0  0
    1.6958   -2.6708   -1.7957 N   0  0  0  0  0  0  0  0  0  0  0  0
    3.6509    0.1553    0.5188 N   0  0  0  0  0  0  0  0  0  0  0  0
    4.7050   -2.5046   -0.8410 C   0  0  0  0  0  0  0  0  0  0  0  0
    4.0963   -1.7394   -2.8660 H   0  0  0  0  0  0  0  0  0  0  0  0
    4.9519   -0.4854   -1.7954 H   0  0  0  0  0  0  0  0  0  0  0  0
    4.7835   -3.4268   -1.4246 H   0  0  0  0  0  0  0  0  0  0  0  0
    5.6334   -2.1796   -0.3619 H   0  0  0  0  0  0  0  0  0  0  0  0
    3.2072   -3.7820    0.2425 H   0  0  0  0  0  0  0  0  0  0  0  0
    4.0621   -2.5281    1.3137 H   0  0  0  0  0  0  0  0  0  0  0  0
   -0.0459   -0.3973    0.5269 N   0  0  0  0  0  0  0  0  0  0  0  0
    0.5796    0.5890   -1.3669 N   0  0  0  0  0  0  0  0  0  0  0  0
   -1.0791    0.5312    0.1639 C   0  0  0  0  0  0  0  0  0  0  0  0
   -0.0634   -1.2577    1.6884 C   0  0  0  0  0  0  0  0  0  0  0  0
   -0.6907    1.1342   -1.0244 C   0  0  0  0  0  0  0  0  0  0  0  0
   -2.2805    0.7763    0.9614 C   0  0  0  0  0  0  0  0  0  0  0  0
   -1.3916    2.1339   -1.8305 C   0  0  0  0  0  0  0  0  0  0  0  0
   -1.6211    3.4148   -1.3041 C   0  0  0  0  0  0  0  0  0  0  0  0
   -1.8534    1.8039   -3.1150 C   0  0  0  0  0  0  0  0  0  0  0  0
   -2.3082    4.3627   -2.0669 C   0  0  0  0  0  0  0  0  0  0  0  0
   -1.2670    3.6655   -0.3036 H   0  0  0  0  0  0  0  0  0  0  0  0
   -2.7663    4.0367   -3.3475 C   0  0  0  0  0  0  0  0  0  0  0  0
   -2.4880    5.3578   -1.6602 H   0  0  0  0  0  0  0  0  0  0  0  0
   -2.5394    2.7585   -3.8692 C   0  0  0  0  0  0  0  0  0  0  0  0
   -3.3029    4.7783   -3.9388 H   0  0  0  0  0  0  0  0  0  0  0  0
   -2.9022    2.5039   -4.8650 H   0  0  0  0  0  0  0  0  0  0  0  0
   -1.6886    0.8031   -3.5160 H   0  0  0  0  0  0  0  0  0  0  0  0
   -3.5462    0.6308    0.3702 C   0  0  0  0  0  0  0  0  0  0  0  0
   -2.1714    1.1812    2.3021 C   0  0  0  0  0  0  0  0  0  0  0  0
   -4.6954    0.8840    1.1230 C   0  0  0  0  0  0  0  0  0  0  0  0
   -3.6291    0.3244   -0.6731 H   0  0  0  0  0  0  0  0  0  0  0  0
   -4.5876    1.2831    2.4591 C   0  0  0  0  0  0  0  0  0  0  0  0
   -5.6781    0.7707    0.6657 H   0  0  0  0  0  0  0  0  0  0  0  0
   -3.3265    1.4323    3.0459 C   0  0  0  0  0  0  0  0  0  0  0  0
   -5.4861    1.4798    3.0430 H   0  0  0  0  0  0  0  0  0  0  0  0
   -3.2429    1.7472    4.0859 H   0  0  0  0  0  0  0  0  0  0  0  0
   -1.1887    1.3003    2.7594 H   0  0  0  0  0  0  0  0  0  0  0  0
    1.1094   -1.3938    2.4502 C   0  0  0  0  0  0  0  0  0  0  0  0
   -1.2393   -1.9443    2.0343 C   0  0  0  0  0  0  0  0  0  0  0  0
    1.0882   -2.2128    3.5824 C   0  0  0  0  0  0  0  0  0  0  0  0
    2.0245   -0.8539    2.1755 H   0  0  0  0  0  0  0  0  0  0  0  0
   -0.0802   -2.8909    3.9449 C   0  0  0  0  0  0  0  0  0  0  0  0
    1.9899   -2.3152    4.1885 H   0  0  0  0  0  0  0  0  0  0  0  0
   -1.2373   -2.7578    3.1696 C   0  0  0  0  0  0  0  0  0  0  0  0
   -0.0889   -3.5247    4.8316 H   0  0  0  0  0  0  0  0  0  0  0  0
   -2.1457   -3.2940    3.4486 H   0  0  0  0  0  0  0  0  0  0  0  0
   -2.1412   -1.8471    1.4272 H   0  0  0  0  0  0  0  0  0  0  0  0
    1.4078    0.9179   -2.5367 C   0  0  0  0  0  0  0  0  0  0  0  0
    1.5473    0.0133   -3.1698 H   0  0  0  0  0  0  0  0  0  0  0  0
    2.4080    1.2757   -2.2052 H   0  0  0  0  0  0  0  0  0  0  0  0
    0.9424    1.7099   -3.1518 H   0  0  0  0  0  0  0  0  0  0  0  0
    1.0504   -3.3300   -2.5254 C   0  0  0  0  0  0  0  0  0  0  0  0
    0.1613   -4.2238   -3.5382 S   0  0  0  0  0  0  0  0  0  0  0  0
    4.1744    1.0032    1.1458 C   0  0  0  0  0  0  0  0  0  0  0  0
    4.8773    2.1726    2.0099 S   0  0  0  0  0  0  0  0  0  0  0  0
  2  7  1  0  0  0  0 
  2  1  1  0  0  0  0 
  2  8  1  0  0  0  0 
  7  3  1  0  0  0  0 
  7 10  1  0  0  0  0 
  3  1  1  0  0  0  0 
  3 12  1  0  0  0  0 
 13  3  1  0  0  0  0 
 11  7  1  0  0  0  0 
  9  2  1  0  0  0  0 
 56 55  2  0  0  0  0 
 55  5  2  0  0  0  0 
  1  5  1  0  0  0  0 
 58 57  2  0  0  0  0 
 57  6  2  0  0  0  0 
  1  6  1  0  0  0  0 
 14  4  1  0  0  0  0 
 16 14  1  0  0  0  0 
 18 16  2  0  0  0  0 
 18 15  1  0  0  0  0 
 15  4  1  0  0  0  0 
 31 19  1  0  0  0  0 
 34 31  1  0  0  0  0 
 33 31  2  0  0  0  0 
 36 33  1  0  0  0  0 
 35 33  1  0  0  0  0 
 38 35  1  0  0  0  0 
 37 35  2  0  0  0  0 
 39 37  1  0  0  0  0 
 32 19  2  0  0  0  0 
 40 32  1  0  0  0  0 
 37 32  1  0  0  0  0 
 16 19  1  0  0  0  0 
 21 20  1  0  0  0  0 
 24 21  1  0  0  0  0 
 23 21  2  0  0  0  0 
 26 23  1  0  0  0  0 
 25 23  1  0  0  0  0 
 28 25  1  0  0  0  0 
 27 25  2  0  0  0  0 
 29 27  1  0  0  0  0 
 22 20  2  0  0  0  0 
 30 22  1  0  0  0  0 
 27 22  1  0  0  0  0 
 18 20  1  0  0  0  0 
 41 17  1  0  0  0  0 
 44 41  1  0  0  0  0 
 43 41  2  0  0  0  0 
 46 43  1  0  0  0  0 
 45 43  1  0  0  0  0 
 48 45  1  0  0  0  0 
 47 45  2  0  0  0  0 
 49 47  1  0  0  0  0 
 42 17  2  0  0  0  0 
 50 42  1  0  0  0  0 
 47 42  1  0  0  0  0 
 14 17  1  0  0  0  0 
 52 51  1  0  0  0  0 
 53 51  1  0  0  0  0 
 54 51  1  0  0  0  0 
 15 51  1  0  0  0  0 
  1  4  1  0  0  0  0 
M  END
> <cdk:Title>
M00000140_C2_GOSE0

> <FrozenCore-PM6_ENERGY>
869.963

>  <CHARGE>
0

>  <SPIN_MULTIPLICITY>
1

$$$$
