first_G
  Mrv0541 03291717343D          

 47 48  0  0  0  0            999 V2000
    0.4731    0.5544   -4.5961 H   0  0  0  0  0  0  0  0  0  0  0  0
    0.4613    0.4563   -1.9769 Ru  0  0  0  0  0  0  0  0  0  0  0  0
    1.5819    0.5843   -4.4935 C   0  0  0  0  0  0  0  0  0  0  0  0
   -1.6330    1.1484   -2.6908 Cl  0  0  0  0  0  0  0  0  0  0  0  0
    2.6198   -0.4461   -1.0938 Cl  0  0  0  0  0  0  0  0  0  0  0  0
    0.9586    2.4161   -1.5261 C   0  0  2  0  0  0  0  0  0  0  0  0
    1.9615    1.3102   -3.2705 C   0  0  1  0  0  0  0  0  0  0  0  0
    0.1424   -0.9546   -0.5793 C   0  0  0  0  0  0  0  0  0  0  0  0
    1.7667    2.4713   -0.7362 H   0  0  0  0  0  0  0  0  0  0  0  0
    0.1000    3.0180   -1.2237 H   0  0  0  0  0  0  0  0  0  0  0  0
    1.4515    2.6966   -2.9836 C   0  0  1  0  0  0  0  0  0  0  0  0
    0.6222    2.9667   -3.6577 H   0  0  0  0  0  0  0  0  0  0  0  0
    2.3195    3.4608   -3.0602 H   0  0  0  0  0  0  0  0  0  0  0  0
    2.9934    1.1337   -2.9927 H   0  0  0  0  0  0  0  0  0  0  0  0
   -0.1363   -2.3221   -1.2090 C   0  0  1  0  0  0  0  0  0  0  0  0
    0.0855   -0.6739    0.7056 N   0  0  0  0  0  0  0  0  0  0  0  0
    0.1316   -2.2362   -2.7273 C   0  0  0  0  0  0  0  0  0  0  0  0
    0.7805   -3.4048   -0.6146 C   0  0  0  0  0  0  0  0  0  0  0  0
   -1.6252   -2.6603   -1.0013 C   0  0  0  0  0  0  0  0  0  0  0  0
   -0.5699   -1.5522   -3.2495 H   0  0  0  0  0  0  0  0  0  0  0  0
   -0.0072   -3.2143   -3.2035 H   0  0  0  0  0  0  0  0  0  0  0  0
    1.1765   -1.9369   -2.9447 H   0  0  0  0  0  0  0  0  0  0  0  0
    0.5283   -3.6488    0.4236 H   0  0  0  0  0  0  0  0  0  0  0  0
    1.8327   -3.0748   -0.6405 H   0  0  0  0  0  0  0  0  0  0  0  0
    0.7216   -4.3360   -1.1889 H   0  0  0  0  0  0  0  0  0  0  0  0
   -2.2645   -1.8548   -1.3960 H   0  0  0  0  0  0  0  0  0  0  0  0
   -1.8882   -2.8111    0.0519 H   0  0  0  0  0  0  0  0  0  0  0  0
   -1.8969   -3.5767   -1.5380 H   0  0  0  0  0  0  0  0  0  0  0  0
   -0.1969   -1.6210    1.8261 C   0  0  2  0  0  0  0  0  0  0  0  0
    0.3483    0.7283    1.1433 C   0  0  0  0  0  0  0  0  0  0  0  0
    0.7225   -1.6897    2.4548 H   0  0  0  0  0  0  0  0  0  0  0  0
   -0.3638   -2.6497    1.4215 H   0  0  0  0  0  0  0  0  0  0  0  0
   -1.4023   -1.2002    2.7044 C   0  0  1  0  0  0  0  0  0  0  0  0
   -1.2050   -0.1771    3.1176 H   0  0  0  0  0  0  0  0  0  0  0  0
   -2.7020   -1.1528    1.9018 C   0  0  0  0  0  0  0  0  0  0  0  0
   -1.5163   -2.1783    3.8786 C   0  0  0  0  0  0  0  0  0  0  0  0
   -2.9219   -2.1127    1.4153 H   0  0  0  0  0  0  0  0  0  0  0  0
   -2.6653   -0.3906    1.1121 H   0  0  0  0  0  0  0  0  0  0  0  0
   -3.5588   -0.9102    2.5418 H   0  0  0  0  0  0  0  0  0  0  0  0
   -2.3351   -1.8899    4.5500 H   0  0  0  0  0  0  0  0  0  0  0  0
   -0.6022   -2.2062    4.4820 H   0  0  0  0  0  0  0  0  0  0  0  0
   -1.7259   -3.2013    3.5456 H   0  0  0  0  0  0  0  0  0  0  0  0
    1.3757    1.0330    0.8274 H   0  0  0  0  0  0  0  0  0  0  0  0
    0.2792    0.8373    2.2360 H   0  0  0  0  0  0  0  0  0  0  0  0
   -0.3766    1.4255    0.6703 H   0  0  0  0  0  0  0  0  0  0  0  0
    2.1306    1.1272   -5.3424 H   0  0  0  0  0  0  0  0  0  0  0  0
    1.9176   -0.4135   -4.5747 H   0  0  0  0  0  0  0  0  0  0  0  0
  1  3  1  0  0  0  0
  1  2  1  0  0  0  0
  3 46  1  0  0  0  0
 47  3  1  0  0  0  0
  7 14  1  0  0  0  0
  7 11  1  0  0  0  0
  7  3  1  0  0  0  0
 11 12  1  0  0  0  0
 11 13  1  0  0  0  0
  6 11  1  0  0  0  0
  9  6  1  0  0  0  0
 10  6  1  0  0  0  0
  2  4  1  0  0  0  0
  2  6  1  0  0  0  0
  2  7  1  0  0  0  0
  5  2  1  0  0  0  0
 16  8  1  0  0  0  0
 15  8  1  0  0  0  0
 17 15  1  0  0  0  0
 20 17  1  0  0  0  0
 21 17  1  0  0  0  0
 22 17  1  0  0  0  0
 18 15  1  0  0  0  0
 23 18  1  0  0  0  0
 24 18  1  0  0  0  0
 25 18  1  0  0  0  0
 19 15  1  0  0  0  0
 26 19  1  0  0  0  0
 27 19  1  0  0  0  0
 28 19  1  0  0  0  0
 33 29  1  0  0  0  0
 35 33  1  0  0  0  0
 36 33  1  0  0  0  0
 31 29  1  0  0  0  0
 32 29  1  0  0  0  0
 34 33  1  0  0  0  0
 37 35  1  0  0  0  0
 38 35  1  0  0  0  0
 39 35  1  0  0  0  0
 40 36  1  0  0  0  0
 41 36  1  0  0  0  0
 42 36  1  0  0  0  0
 16 29  1  0  0  0  0
 43 30  1  0  0  0  0
 44 30  1  0  0  0  0
 45 30  1  0  0  0  0
 16 30  1  0  0  0  0
  2  8  1  0  0  0  0
M  END
>  <FrozenCore-PM6_ENERGY>
-187.100

>  <CHARGE>
-3

>  <SPIN_MULTIPLICITY>
3

$$$$
second_G
  Mrv0541 03291717343D          

 47 46  0  0  0  0            999 V2000
    0.4773    0.4746   -4.9101 H   0  0  0  0  0  0  0  0  0  0  0  0
    0.4891    0.5727   -1.9547 Ru  0  0  1  0  0  0  0  0  0  0  0  0
    1.5425    0.4447   -4.6719 C   0  0  0  0  0  0  0  0  0  0  0  0
   -1.6342    1.1638   -2.6896 Cl  0  0  0  0  0  0  0  0  0  0  0  0
    2.6276   -0.3779   -1.0778 Cl  0  0  0  0  0  0  0  0  0  0  0  0
    0.9314    2.4623   -1.5385 C   0  0  2  0  0  0  0  0  0  0  0  0
    1.9397    1.0674   -3.3147 C   0  0  1  0  0  0  0  0  0  0  0  0
    0.1424   -0.9546   -0.5793 C   0  0  0  0  0  0  0  0  0  0  0  0
    1.7307    2.5655   -0.8460 H   0  0  0  0  0  0  0  0  0  0  0  0
    0.0768    3.1222   -1.3217 H   0  0  0  0  0  0  0  0  0  0  0  0
    1.4305    2.4944   -2.9654 C   0  0  1  0  0  0  0  0  0  0  0  0
    0.6228    2.8195   -3.6293 H   0  0  0  0  0  0  0  0  0  0  0  0
    2.2093    3.1896   -3.0832 H   0  0  0  0  0  0  0  0  0  0  0  0
    2.9884    0.9395   -3.0267 H   0  0  0  0  0  0  0  0  0  0  0  0
   -0.1363   -2.3221   -1.2090 C   0  0  1  0  0  0  0  0  0  0  0  0
    0.0855   -0.6739    0.7056 N   0  0  0  0  0  0  0  0  0  0  0  0
    0.1316   -2.2362   -2.7273 C   0  0  0  0  0  0  0  0  0  0  0  0
    0.7805   -3.4048   -0.6146 C   0  0  0  0  0  0  0  0  0  0  0  0
   -1.6252   -2.6603   -1.0013 C   0  0  0  0  0  0  0  0  0  0  0  0
   -0.5699   -1.5522   -3.2495 H   0  0  0  0  0  0  0  0  0  0  0  0
   -0.0072   -3.2143   -3.2035 H   0  0  0  0  0  0  0  0  0  0  0  0
    1.1765   -1.9369   -2.9447 H   0  0  0  0  0  0  0  0  0  0  0  0
    0.5283   -3.6488    0.4236 H   0  0  0  0  0  0  0  0  0  0  0  0
    1.8327   -3.0748   -0.6405 H   0  0  0  0  0  0  0  0  0  0  0  0
    0.7216   -4.3360   -1.1889 H   0  0  0  0  0  0  0  0  0  0  0  0
   -2.2645   -1.8548   -1.3960 H   0  0  0  0  0  0  0  0  0  0  0  0
   -1.8882   -2.8111    0.0519 H   0  0  0  0  0  0  0  0  0  0  0  0
   -1.8969   -3.5767   -1.5380 H   0  0  0  0  0  0  0  0  0  0  0  0
   -0.1969   -1.6210    1.8261 C   0  0  2  0  0  0  0  0  0  0  0  0
    0.3483    0.7283    1.1433 C   0  0  0  0  0  0  0  0  0  0  0  0
    0.7225   -1.6897    2.4548 H   0  0  0  0  0  0  0  0  0  0  0  0
   -0.3638   -2.6497    1.4215 H   0  0  0  0  0  0  0  0  0  0  0  0
   -1.4023   -1.2002    2.7044 C   0  0  1  0  0  0  0  0  0  0  0  0
   -1.2050   -0.1771    3.1176 H   0  0  0  0  0  0  0  0  0  0  0  0
   -2.7020   -1.1528    1.9018 C   0  0  0  0  0  0  0  0  0  0  0  0
   -1.5163   -2.1783    3.8786 C   0  0  0  0  0  0  0  0  0  0  0  0
   -2.9219   -2.1127    1.4153 H   0  0  0  0  0  0  0  0  0  0  0  0
   -2.6653   -0.3906    1.1121 H   0  0  0  0  0  0  0  0  0  0  0  0
   -3.5588   -0.9102    2.5418 H   0  0  0  0  0  0  0  0  0  0  0  0
   -2.3351   -1.8899    4.5500 H   0  0  0  0  0  0  0  0  0  0  0  0
   -0.6022   -2.2062    4.4820 H   0  0  0  0  0  0  0  0  0  0  0  0
   -1.7259   -3.2013    3.5456 H   0  0  0  0  0  0  0  0  0  0  0  0
    1.3757    1.0330    0.8274 H   0  0  0  0  0  0  0  0  0  0  0  0
    0.2792    0.8373    2.2360 H   0  0  0  0  0  0  0  0  0  0  0  0
   -0.3766    1.4255    0.6703 H   0  0  0  0  0  0  0  0  0  0  0  0
    1.8924    1.0310   -5.5006 H   0  0  0  0  0  0  0  0  0  0  0  0
    1.9544   -0.6179   -4.6837 H   0  0  0  0  0  0  0  0  0  0  0  0
  1  3  1  0  0  0  0
  3 46  1  0  0  0  0
 47  3  1  0  0  0  0
  7 14  1  0  0  0  0
  7 11  1  0  0  0  0
  7  3  1  0  0  0  0
 11 12  1  0  0  0  0
 11 13  1  0  0  0  0
  6 11  1  0  0  0  0
  9  6  1  0  0  0  0
 10  6  1  0  0  0  0
  2  4  1  0  0  0  0
  2  6  1  0  0  0  0
  5  2  1  0  0  0  0
 16  8  1  0  0  0  0
 15  8  1  0  0  0  0
 17 15  1  0  0  0  0
 20 17  1  0  0  0  0
 21 17  1  0  0  0  0
 22 17  1  0  0  0  0
 18 15  1  0  0  0  0
 23 18  1  0  0  0  0
 24 18  1  0  0  0  0
 25 18  1  0  0  0  0
 19 15  1  0  0  0  0
 26 19  1  0  0  0  0
 27 19  1  0  0  0  0
 28 19  1  0  0  0  0
 33 29  1  0  0  0  0
 35 33  1  0  0  0  0
 36 33  1  0  0  0  0
 31 29  1  0  0  0  0
 32 29  1  0  0  0  0
 34 33  1  0  0  0  0
 37 35  1  0  0  0  0
 38 35  1  0  0  0  0
 39 35  1  0  0  0  0
 40 36  1  0  0  0  0
 41 36  1  0  0  0  0
 42 36  1  0  0  0  0
 16 29  1  0  0  0  0
 43 30  1  0  0  0  0
 44 30  1  0  0  0  0
 45 30  1  0  0  0  0
 16 30  1  0  0  0  0
  2  8  1  0  0  0  0
M  END
>  <FrozenCore-PM6_ENERGY>
-187.100

>  <CHARGE>
-2

>  <SPIN_MULTIPLICITY>
2

$$$$
